/*--------------------------------*- C++ -*----------------------------------*\
| =========                 |                                                 |
| \\      /  F ield         | OpenFOAM: The Open Source CFD Toolbox           |
|  \\    /   O peration     | Version:  v2506                                 |
|   \\  /    A nd           | Website:  www.openfoam.com                      |
|    \\/     M anipulation  |                                                 |
\*---------------------------------------------------------------------------*/
FoamFile
{
    version     2.0;
    format      ascii;
    class       volScalarField;
    object      p;
}
// * * * * * * * * * * * * * * * * * * * * * * * * * * * * * * * * * * * * * //

dimensions      [1 -1 -2 0 0 0 0];

internalField   uniform 0.0;

boundaryField
{
    inlet
    {
        type            calculated;
        value           uniform 0; 
    }
    outlet
    {
        type            calculated;
        value           uniform 0; 
    }
    top
    {
        type            calculated;
        value           uniform 0; 
    }
    bottom
    {
        type            calculated;
        value           uniform 0; 
    }
    left
    {
        type            calculated;
        value           uniform 0; 
    }
    symmetry
    {
        type            symmetryPlane;
    }
    interface
    {
        type            calculated;
        value           uniform 0; 
    }
}


// ************************************************************************* //
